/*--------------------------------*- C++ -*----------------------------------*\
  =========                 |
  \\      /  F ield         | OpenFOAM: The Open Source CFD Toolbox
   \\    /   O peration     | Website:  https://openfoam.org
    \\  /    A nd           | Version:  8
     \\/     M anipulation  |
\*---------------------------------------------------------------------------*/
FoamFile
{
    version     2.0;
    format      ascii;
    class       dictionary;
    location    "constant";
    object      chemistryProperties;
}
// * * * * * * * * * * * * * * * * * * * * * * * * * * * * * * * * * * * * * //


chemistryType
{
    solver            ode;
    method          loadBalanced;
}


loadbalancing
{
        active true;
        log true;
}


refmapping
{
    active  false;
    
    mixtureFractionProperties
    {
        oxidizerMassFractions
        {
            N2       0.77;
            O2       0.23;
        }

        fuelMassFractions
        {
            NC12H26       1.0;
        }

        //#include "$FOAM_CASE/constant/foam/thermo.foam"
    }
    tolerance	1e-4;  // mixture fraction tolerance
    deltaT	2; // temperature tolerance
}




chemistry       on;

initialChemicalTimeStep 1e-7;

EulerImplicitCoeffs
{
    cTauChem        1;
    equilibriumRateLimiter off;
}

odeCoeffs
{
    solver          seulex;
    absTol          1e-12;
    relTol          1e-1;
}

#include "reactions"

// ************************************************************************* //
